4OBP.A
  MOE2020           3D
TRANSFERASE/TRANSFERASE INHIBITOR
 26 28  0  0  0  0  0  0  0  0999 V2000
  -15.8330   -4.1080   27.9390 C   0  0  0  0  0  0  0  0  0  0  0  0
  -16.6600   -5.1700   27.6690 C   0  0  0  0  0  0  0  0  0  0  0  0
  -16.7350   -6.2860   28.5430 C   0  0  0  0  0  0  0  0  0  0  0  0
  -15.9810   -6.3330   29.6270 N   0  0  0  0  0  0  0  0  0  0  0  0
  -15.1190   -5.2920   29.9100 C   0  0  0  0  0  0  0  0  0  0  0  0
  -15.0510   -4.1470   29.1030 C   0  0  0  0  0  0  0  0  0  0  0  0
  -14.2410   -3.0940   29.4450 N   0  0  0  0  0  0  0  0  0  0  0  0
  -13.5080   -3.1860   30.5260 C   0  0  0  0  0  0  0  0  0  0  0  0
  -13.4780   -4.2810   31.3340 N   0  0  0  0  0  0  0  0  0  0  0  0
  -14.2280   -5.3060   31.0240 C   0  0  0  0  0  0  0  0  0  0  0  0
  -14.1010   -6.4110   31.8070 N   0  0  0  0  0  0  0  0  0  0  0  0
  -17.6770   -7.3800   28.2910 C   0  0  0  0  0  0  0  0  0  0  0  0
  -18.1570   -7.6840   27.0110 C   0  0  0  0  0  0  0  0  0  0  0  0
  -19.1410   -8.6510   26.8290 C   0  0  0  0  0  0  0  0  0  0  0  0
  -19.6370   -9.3580   27.8480 N   0  0  0  0  0  0  0  0  0  0  0  0
  -19.1340   -9.1160   29.0560 C   0  0  0  0  0  0  0  0  0  0  0  0
  -18.1760   -8.1580   29.3340 C   0  0  0  0  0  0  0  0  0  0  0  0
  -19.6370   -9.8630   30.0630 F   0  0  0  0  0  0  0  0  0  0  0  0
  -15.7790   -3.2700   27.2940 H   0  0  0  0  0  0  0  0  0  0  0  0
  -17.2640   -5.1490   26.8050 H   0  0  0  0  0  0  0  0  0  0  0  0
  -12.8920   -2.3610   30.7910 H   0  0  0  0  0  0  0  0  0  0  0  0
  -13.7130   -6.3380   32.7690 H   0  0  0  0  0  0  0  0  0  0  0  0
  -14.7700   -7.1770   31.6410 H   0  0  0  0  0  0  0  0  0  0  0  0
  -17.7730   -7.1820   26.1660 H   0  0  0  0  0  0  0  0  0  0  0  0
  -19.5120   -8.8460   25.8520 H   0  0  0  0  0  0  0  0  0  0  0  0
  -17.8390   -8.0160   30.3260 H   0  0  0  0  0  0  0  0  0  0  0  0
  1  2  2  0  0  0  0
  1  6  1  0  0  0  0
  1 19  1  0  0  0  0
  2  3  1  0  0  0  0
  2 20  1  0  0  0  0
  3  4  2  0  0  0  0
  3 12  1  0  0  0  0
  4  5  1  0  0  0  0
  5  6  1  0  0  0  0
  5 10  2  0  0  0  0
  6  7  2  0  0  0  0
  7  8  1  0  0  0  0
  8  9  2  0  0  0  0
  8 21  1  0  0  0  0
  9 10  1  0  0  0  0
 10 11  1  0  0  0  0
 11 22  1  0  0  0  0
 11 23  1  0  0  0  0
 12 13  1  0  0  0  0
 12 17  2  0  0  0  0
 13 14  2  0  0  0  0
 13 24  1  0  0  0  0
 14 15  1  0  0  0  0
 14 25  1  0  0  0  0
 15 16  2  0  0  0  0
 16 17  1  0  0  0  0
 16 18  1  0  0  0  0
 17 26  1  0  0  0  0
M  END
$$$$
